<?xml version="1.0" encoding="UTF-8"?>
<!DOCTYPE network SYSTEM "http://www.matsim.org/files/dtd/network_v2.dtd">
<network>

<!-- ====================================================================== -->

	<nodes>
		<node id="1014037712" x="4474054.153199847" y="5300310.139932215" >
		</node>
		<node id="1014556730" x="4475124.700284914" y="5307822.977245762" >
		</node>
		<node id="1015156572" x="4484245.714705876" y="5309733.3423592495" >
		</node>
		<node id="1016301315" x="4483528.068738987" y="5309581.24344363" >
		</node>
		<node id="1016301573" x="4483478.018982661" y="5309987.265102295" >
		</node>
		<node id="1022025357" x="4472441.22126668" y="5305772.112799224" >
		</node>
		<node id="1022551708" x="4470590.0532732075" y="5305168.371560758" >
		</node>
		<node id="1024746592" x="4485628.049192859" y="5302446.875697125" >
		</node>
		<node id="10266939" x="4477964.850947706" y="5304210.034483251" >
		</node>
		<node id="10266942" x="4479804.047328934" y="5304353.637526262" >
		</node>
		<node id="10267455" x="4484635.679955513" y="5307919.700115223" >
		</node>
		<node id="10267457" x="4484540.747044993" y="5308245.529690248" >
		</node>
		<node id="10267618" x="4484858.486528632" y="5308218.265812938" >
		</node>
		<node id="10267633" x="4485635.981714364" y="5308369.435615951" >
		</node>
		<node id="10267634" x="4485658.345747176" y="5308380.832358495" >
		</node>
		<node id="10267765" x="4487141.793900186" y="5307178.776784255" >
		</node>
		<node id="10267826" x="4486468.04783502" y="5305431.657079735" >
		</node>
		<node id="10267880" x="4486018.309833769" y="5305575.677124419" >
		</node>
		<node id="10267887" x="4485837.65305102" y="5305775.926179851" >
		</node>
		<node id="1026894087" x="4467170.872613056" y="5304690.215011833" >
		</node>
		<node id="1030163763" x="4464906.975954074" y="5310395.592652869" >
		</node>
		<node id="1031515241" x="4482458.213061475" y="5304968.531638123" >
		</node>
		<node id="1031515387" x="4482521.714845688" y="5304976.088531963" >
		</node>
		<node id="1037707889" x="4484700.356272087" y="5304063.774103729" >
		</node>
		<node id="1037707959" x="4484920.964484037" y="5303356.0850015385" >
		</node>
		<node id="1038562525" x="4469860.644272337" y="5307772.154723982" >
		</node>
		<node id="1038562561" x="4469762.527706966" y="5307792.060608044" >
		</node>
		<node id="1038562626" x="4469706.423257915" y="5308054.379142636" >
		</node>
		<node id="1038600991" x="4465228.559844935" y="5299784.669058965" >
		</node>
		<node id="1038600993" x="4465268.26798469" y="5299717.337357302" >
		</node>
		<node id="1038601004" x="4465169.767995946" y="5299874.076362678" >
		</node>
		<node id="1038601009" x="4465352.382625228" y="5299639.08738307" >
		</node>
		<node id="1038601012" x="4465360.624792134" y="5299713.903116289" >
		</node>
		<node id="1038601016" x="4465458.385038859" y="5299743.951121741" >
		</node>
		<node id="1040007264" x="4487462.022763538" y="5298972.957785698" >
		</node>
		<node id="1040976854" x="4479816.528740289" y="5306060.948762343" >
		</node>
		<node id="1045219092" x="4473491.656832725" y="5311137.353931123" >
		</node>
		<node id="1048980548" x="4487732.481973252" y="5306542.9502573" >
		</node>
		<node id="1048980653" x="4487793.550296376" y="5306574.642714137" >
		</node>
		<node id="1048980811" x="4487762.462800287" y="5306530.644426801" >
		</node>
		<node id="1048981174" x="4487783.3946809545" y="5306521.237774332" >
		</node>
		<node id="1049095944" x="4487436.672093137" y="5299018.155345224" >
		</node>
		<node id="1049096050" x="4487590.388231413" y="5299040.916164375" >
		</node>
		<node id="1049096109" x="4487505.681154715" y="5299242.50530222" >
		</node>
		<node id="1049096364" x="4487395.683027809" y="5299118.981252354" >
		</node>
		<node id="1049096494" x="4487629.8444595635" y="5298911.297241324" >
		</node>
		<node id="1056585506" x="4467013.068574979" y="5311598.22766735" >
		</node>
		<node id="1056611408" x="4470236.816433057" y="5304310.841743857" >
		</node>
		<node id="1058788319" x="4473731.52329143" y="5310915.449352923" >
		</node>
		<node id="1061172825" x="4486458.221151824" y="5305333.377736392" >
		</node>
		<node id="1061175626" x="4486532.853899659" y="5304617.132911383" >
		</node>
		<node id="1061184306" x="4486452.343445747" y="5304593.316090639" >
		</node>
		<node id="1061202298" x="4486439.24472754" y="5304637.23329625" >
		</node>
		<node id="1061831713" x="4487259.737669263" y="5302979.743958276" >
		</node>
		<node id="1061831759" x="4487492.477988769" y="5302953.6269022385" >
		</node>
		<node id="1061863623" x="4484531.923393622" y="5303479.557867976" >
		</node>
		<node id="1061863630" x="4484808.909830624" y="5302855.639536695" >
		</node>
		<node id="1063457430" x="4486108.345283597" y="5302099.0999017125" >
		</node>
		<node id="1063457442" x="4486163.361159006" y="5302045.819295031" >
		</node>
		<node id="1063457446" x="4486237.667053547" y="5301991.247797384" >
		</node>
		<node id="1063458798" x="4486199.819118877" y="5301392.498371529" >
		</node>
		<node id="1063464012" x="4485844.025903787" y="5301143.642811875" >
		</node>
		<node id="1063685645" x="4485914.618828957" y="5300990.318699761" >
		</node>
		<node id="1063690103" x="4485837.690044403" y="5301187.70018582" >
		</node>
		<node id="1063690107" x="4485798.509386802" y="5301275.857985974" >
		</node>
		<node id="1063821555" x="4485824.113568958" y="5301406.875244455" >
		</node>
		<node id="1063821602" x="4485819.9549341565" y="5301377.487195258" >
		</node>
		<node id="1063821609" x="4485765.3650554465" y="5301340.940630988" >
		</node>
		<node id="1068917449" x="4486028.98515084" y="5300894.929655448" >
		</node>
		<node id="1068917460" x="4485896.834681689" y="5300867.71008101" >
		</node>
		<node id="1068917464" x="4485870.699171875" y="5300969.066870086" >
		</node>
		<node id="1068927924" x="4469680.372889316" y="5309036.342213437" >
		</node>
		<node id="1068928404" x="4486567.883312836" y="5300516.764075709" >
		</node>
		<node id="1069977337" x="4481295.130438075" y="5297259.506102181" >
		</node>
		<node id="1072773008" x="4487365.955320273" y="5299195.699427437" >
		</node>
		<node id="1075390922" x="4465315.81816722" y="5307159.190426616" >
		</node>
		<node id="1075391058" x="4465366.125045066" y="5307206.767545744" >
		</node>
		<node id="1075391080" x="4465351.6827400215" y="5307194.845520445" >
		</node>
		<node id="1075391083" x="4465396.3438622905" y="5307076.735271019" >
		</node>
		<node id="1075391119" x="4465350.239698996" y="5307055.518647128" >
		</node>
		<node id="1077185729" x="4470650.609661535" y="5307320.819433813" >
		</node>
		<node id="1077185791" x="4471088.118524439" y="5307160.715842504" >
		</node>
		<node id="1077186304" x="4469572.471117464" y="5306214.23714787" >
		</node>
		<node id="1077222067" x="4469641.497253865" y="5301443.190156826" >
		</node>
		<node id="1077658994" x="4479024.373197257" y="5303489.408266441" >
		</node>
		<node id="1078618923" x="4471590.242319005" y="5301735.888556139" >
		</node>
		<node id="1083343209" x="4475264.053846622" y="5306938.865024236" >
		</node>
		<node id="1083650461" x="4464317.706768132" y="5305838.4738793" >
		</node>
		<node id="10847452" x="4478659.641523155" y="5306258.766833759" >
		</node>
		<node id="10847457" x="4477847.79711815" y="5304582.458253612" >
		</node>
		<node id="10847460" x="4477795.446889667" y="5304608.477996321" >
		</node>
		<node id="10847469" x="4478179.895536157" y="5306284.425248602" >
		</node>
		<node id="10847474" x="4477680.701467104" y="5306330.802435042" >
		</node>
		<node id="10847482" x="4477630.126731441" y="5306605.6612115195" >
		</node>
		<node id="10847483" x="4477632.436540146" y="5306518.8013726855" >
		</node>
		<node id="10847488" x="4477489.224516519" y="5306047.655966886" >
		</node>
		<node id="10847494" x="4477548.853354935" y="5305179.316120782" >
		</node>
		<node id="10847498" x="4477616.893965553" y="5304944.629189741" >
		</node>
		<node id="10847510" x="4477168.063779718" y="5305816.976316497" >
		</node>
		<node id="10847511" x="4477253.807577259" y="5305927.549665527" >
		</node>
		<node id="10847512" x="4477280.564807" y="5305952.117262763" >
		</node>
		<node id="10847719" x="4476042.929341519" y="5308178.176156799" >
		</node>
		<node id="10847931" x="4477399.211444484" y="5304190.252866522" >
		</node>
		<node id="10847934" x="4477551.768878547" y="5304416.4068067325" >
		</node>
		<node id="10847936" x="4477528.874583872" y="5304413.327077971" >
		</node>
		<node id="10848154" x="4471522.657214199" y="5302283.868633379" >
		</node>
		<node id="10848305" x="4469853.730431644" y="5301257.023361169" >
		</node>
		<node id="10848306" x="4469830.29845752" y="5301284.643219393" >
		</node>
		<node id="10848315" x="4468981.423637003" y="5302051.3995405305" >
		</node>
		<node id="10848316" x="4468873.070719926" y="5302105.721381348" >
		</node>
		<node id="10848617" x="4466311.734576987" y="5302691.345853964" >
		</node>
		<node id="10848625" x="4465959.83464212" y="5303088.330113691" >
		</node>
		<node id="10848627" x="4465878.592269892" y="5303121.211109655" >
		</node>
		<node id="10848634" x="4465127.042389873" y="5302169.974677495" >
		</node>
		<node id="10848638" x="4464808.396690566" y="5302102.4019114375" >
		</node>
		<node id="10848643" x="4464902.153535645" y="5301625.151804322" >
		</node>
		<node id="10849242" x="4476061.0379495295" y="5300994.115445475" >
		</node>
		<node id="1088842774" x="4475750.572974188" y="5297174.931857437" >
		</node>
		<node id="1093925863" x="4467519.825044918" y="5309627.11016821" >
		</node>
		<node id="1093926059" x="4466903.974304026" y="5309786.007855575" >
		</node>
		<node id="1096268492" x="4465829.196875844" y="5297782.314415037" >
		</node>
		<node id="1096268531" x="4466050.409542284" y="5297913.573048353" >
		</node>
		<node id="1096332698" x="4466758.922202032" y="5311020.084368624" >
		</node>
		<node id="1098136258" x="4469492.059308643" y="5306163.447194023" >
		</node>
		<node id="1098136290" x="4469551.833502098" y="5306080.093266936" >
		</node>
		<node id="1102275577" x="4481214.268678773" y="5297292.569117626" >
		</node>
		<node id="1102649835" x="4467137.3204904385" y="5303294.5824780725" >
		</node>
		<node id="1102649893" x="4467947.382913881" y="5301909.230160847" >
		</node>
		<node id="1103116649" x="4479476.473687268" y="5299157.60273694" >
		</node>
		<node id="1103225822" x="4479815.480740085" y="5299129.455405241" >
		</node>
		<node id="1103236374" x="4479798.332824028" y="5298878.406460415" >
		</node>
		<node id="1103236997" x="4465990.258496884" y="5305668.540509039" >
		</node>
		<node id="1103490818" x="4467666.785521445" y="5306252.77402138" >
		</node>
		<node id="1103576000" x="4474557.924935932" y="5300751.901622355" >
		</node>
		<node id="1103617718" x="4474661.4323764285" y="5300669.110322347" >
		</node>
		<node id="1103617729" x="4474664.399408387" y="5300731.174602026" >
		</node>
		<node id="1103617737" x="4474701.012915277" y="5300750.816961291" >
		</node>
		<node id="1110303513" x="4465948.104652143" y="5303754.44992323" >
		</node>
		<node id="1110306270" x="4465855.746533467" y="5305427.847848416" >
		</node>
		<node id="1111735030" x="4464409.562016804" y="5305746.628278041" >
		</node>
		<node id="1116512052" x="4464245.333496805" y="5301293.570387597" >
		</node>
		<node id="1116529353" x="4469429.420273522" y="5300601.560643647" >
		</node>
		<node id="1116529536" x="4469286.931114598" y="5300790.696002232" >
		</node>
		<node id="1116554538" x="4466265.85769409" y="5298362.568384609" >
		</node>
		<node id="1116894775" x="4473303.005555534" y="5298895.325659837" >
		</node>
		<node id="1118523213" x="4475875.065212509" y="5300711.456019322" >
		</node>
		<node id="1118523236" x="4475853.687143291" y="5300768.596829016" >
		</node>
		<node id="1123279725" x="4467748.037222376" y="5306131.475461232" >
		</node>
		<node id="1134098046" x="4475104.620353542" y="5297134.503445982" >
		</node>
		<node id="11588886" x="4469683.242142125" y="5311936.914792325" >
		</node>
		<node id="11588887" x="4468993.766893739" y="5310968.241179461" >
		</node>
		<node id="11588900" x="4469276.3240848975" y="5310595.231985143" >
		</node>
		<node id="11588910" x="4469754.631890242" y="5309349.524883581" >
		</node>
		<node id="11588938" x="4466800.913535364" y="5309809.262082929" >
		</node>
		<node id="11588947" x="4465801.843518865" y="5309731.123198353" >
		</node>
		<node id="11588950" x="4465687.629912448" y="5309527.640869351" >
		</node>
		<node id="11588952" x="4465481.854779703" y="5309368.674402562" >
		</node>
		<node id="11588953" x="4465467.989532333" y="5309293.73555221" >
		</node>
		<node id="11588954" x="4465660.983729303" y="5309252.763731336" >
		</node>
		<node id="11589387" x="4465607.211682206" y="5309135.964920999" >
		</node>
		<node id="11589389" x="4465529.1457507" y="5309277.857869499" >
		</node>
		<node id="11589390" x="4465486.580873807" y="5309156.990158967" >
		</node>
		<node id="11589392" x="4465601.838952514" y="5309051.067804209" >
		</node>
		<node id="11589409" x="4465632.751964218" y="5309256.278988771" >
		</node>
		<node id="11589411" x="4466110.028991107" y="5307862.163052238" >
		</node>
		<node id="11589450" x="4466254.88874585" y="5306563.829926868" >
		</node>
		<node id="11589463" x="4467033.393687808" y="5306732.263334553" >
		</node>
		<node id="11589466" x="4466365.380073859" y="5305883.109893683" >
		</node>
		<node id="11589473" x="4465913.905261958" y="5305632.920477976" >
		</node>
		<node id="11589475" x="4465868.697361508" y="5305456.380969912" >
		</node>
		<node id="11589500" x="4465906.825467999" y="5304013.292863374" >
		</node>
		<node id="11589502" x="4465931.798129951" y="5303928.550495956" >
		</node>
		<node id="11589503" x="4465833.474602263" y="5303865.596698168" >
		</node>
		<node id="11589507" x="4465886.0567734465" y="5303285.319557565" >
		</node>
		<node id="11589509" x="4466624.181007659" y="5302565.263171412" >
		</node>
		<node id="11589812" x="4466654.092744582" y="5301553.714484181" >
		</node>
		<node id="11589829" x="4467672.099501394" y="5301876.818244466" >
		</node>
		<node id="11589833" x="4467860.08876095" y="5302072.532808451" >
		</node>
		<node id="11589835" x="4467908.055329496" y="5302177.041530925" >
		</node>
		<node id="11591932" x="4479555.422645091" y="5306071.854343712" >
		</node>
		<node id="11591937" x="4472677.48536261" y="5311293.761512728" >
		</node>
		<node id="11591940" x="4472957.9743755" y="5311469.087443107" >
		</node>
		<node id="11591942" x="4473283.27892673" y="5311443.072373085" >
		</node>
		<node id="11594639" x="4478992.059474832" y="5304174.833159651" >
		</node>
		<node id="11594643" x="4478948.573372064" y="5304223.637364893" >
		</node>
		<node id="11594644" x="4478942.0810548095" y="5304264.812453266" >
		</node>
		<node id="11594645" x="4479043.852724165" y="5304194.7255373" >
		</node>
		<node id="11596523" x="4464946.090779777" y="5301540.935140413" >
		</node>
		<node id="11596538" x="4465940.59784319" y="5301658.773804875" >
		</node>
		<node id="11596546" x="4466248.952604471" y="5301908.9233970735" >
		</node>
		<node id="11596548" x="4466639.734828858" y="5301739.709516838" >
		</node>
		<node id="11596558" x="4466011.399479574" y="5301099.57472674" >
		</node>
		<node id="11596561" x="4465714.457056806" y="5301031.957384686" >
		</node>
		<node id="11596568" x="4465705.340915542" y="5300629.865215209" >
		</node>
		<node id="11596575" x="4465652.475650066" y="5300206.29531463" >
		</node>
		<node id="11596583" x="4465340.26233522" y="5299585.532475717" >
		</node>
		<node id="11596588" x="4465126.155090848" y="5299121.507039143" >
		</node>
		<node id="11596601" x="4467892.402109992" y="5300871.777450109" >
		</node>
		<node id="11596602" x="4468000.783208948" y="5300895.60462915" >
		</node>
		<node id="11596609" x="4468741.111516568" y="5300884.333940472" >
		</node>
		<node id="11596610" x="4467573.275776568" y="5301788.786298886" >
		</node>
		<node id="11596613" x="4468994.933317113" y="5300880.942029894" >
		</node>
		<node id="11596614" x="4469043.645457337" y="5300905.987756922" >
		</node>
		<node id="11596615" x="4469122.165456279" y="5300931.619419562" >
		</node>
		<node id="11596618" x="4469426.16112354" y="5300936.095292754" >
		</node>
		<node id="11596631" x="4475692.503025216" y="5307767.526221235" >
		</node>
		<node id="11601980" x="4478312.693995619" y="5305628.390503448" >
		</node>
		<node id="11601983" x="4478122.343494123" y="5305109.796241059" >
		</node>
		<node id="11601987" x="4478593.859418269" y="5306174.539621621" >
		</node>
		<node id="11601991" x="4478991.960269659" y="5306486.441696301" >
		</node>
		<node id="11601994" x="4479151.263935338" y="5306575.426691921" >
		</node>
		<node id="11602003" x="4480289.170070067" y="5308190.550775287" >
		</node>
		<node id="11602192" x="4484529.02341997" y="5309772.7906102035" >
		</node>
		<node id="1163305305" x="4473827.609352617" y="5310712.609223783" >
		</node>
		<node id="1163842895" x="4486324.551856841" y="5308712.489877442" >
		</node>
		<node id="1163842957" x="4485971.8973435145" y="5308893.12251123" >
		</node>
		<node id="1163842963" x="4486119.282705408" y="5308727.892363182" >
		</node>
		<node id="1163843007" x="4486219.366042062" y="5308571.118478988" >
		</node>
		<node id="1166774155" x="4478107.767298089" y="5304625.640929458" >
		</node>
		<node id="1166774298" x="4478113.584884584" y="5304621.204593382" >
		</node>
		<node id="1166774343" x="4478018.218261796" y="5304610.470692316" >
		</node>
		<node id="1166774398" x="4478113.028153198" y="5304622.329726758" >
		</node>
		<node id="1166774421" x="4478029.570686461" y="5304611.828409056" >
		</node>
		<node id="1178157229" x="4486486.856934582" y="5308560.042831283" >
		</node>
		<node id="1199132082" x="4480436.664980584" y="5300326.589472743" >
		</node>
		<node id="1199132088" x="4479976.49975236" y="5300206.627003381" >
		</node>
		<node id="1199763362" x="4482733.984891415" y="5305520.344235222" >
		</node>
		<node id="1199763380" x="4483296.523040815" y="5305908.371545161" >
		</node>
		<node id="1199763419" x="4482675.495283033" y="5305103.35859142" >
		</node>
		<node id="1199763431" x="4483588.372405602" y="5306050.2998304805" >
		</node>
		<node id="1199763472" x="4482599.530844596" y="5305092.123914954" >
		</node>
		<node id="1199763485" x="4482573.360365378" y="5305200.857526097" >
		</node>
		<node id="1199763503" x="4483296.122688287" y="5305741.9996116245" >
		</node>
		<node id="1199763522" x="4483004.717368858" y="5305737.993276496" >
		</node>
		<node id="1199763550" x="4482654.430510382" y="5305166.977965771" >
		</node>
		<node id="1199763581" x="4483282.4828641275" y="5305889.1764764255" >
		</node>
		<node id="1199763594" x="4482588.247781767" y="5305150.1322743585" >
		</node>
		<node id="12213599" x="4477163.95682847" y="5305195.649838807" >
		</node>
		<node id="12213603" x="4477289.60076855" y="5305075.7906853445" >
		</node>
		<node id="12213606" x="4477199.154297271" y="5304981.936241695" >
		</node>
		<node id="12213608" x="4477163.705597617" y="5304943.437954901" >
		</node>
		<node id="12213609" x="4477234.081600645" y="5304860.122726012" >
		</node>
		<node id="12213611" x="4477289.7540008165" y="5304793.833910269" >
		</node>
		<node id="12213612" x="4477321.8341122875" y="5304829.7332432885" >
		</node>
		<node id="12213615" x="4477390.921941131" y="5304748.882336587" >
		</node>
		<node id="12213619" x="4477399.490895827" y="5304622.192018001" >
		</node>
		<node id="12213622" x="4477248.509399578" y="5304594.621415428" >
		</node>
		<node id="12213624" x="4477280.758686114" y="5304517.461693953" >
		</node>
		<node id="12213626" x="4477327.985624645" y="5304474.856738658" >
		</node>
		<node id="12213627" x="4477309.490277054" y="5304441.483507839" >
		</node>
		<node id="12213630" x="4478940.396330126" y="5304733.228424658" >
		</node>
		<node id="12213631" x="4478758.032720132" y="5304622.563083088" >
		</node>
		<node id="12216768" x="4479100.598467124" y="5295700.260691888" >
		</node>
		<node id="1231560196" x="4469973.608081138" y="5301322.824105551" >
		</node>
		<node id="1231560339" x="4467316.411509574" y="5306698.306100482" >
		</node>
		<node id="1231560383" x="4467297.269716501" y="5306697.113700923" >
		</node>
		<node id="12335110" x="4477656.900436053" y="5304536.895400714" >
		</node>
		<node id="1239903028" x="4482811.293019348" y="5305547.754741036" >
		</node>
		<node id="1239903029" x="4486126.594910957" y="5308815.459012617" >
		</node>
		<node id="1239903030" x="4483371.921238735" y="5302521.580693019" >
		</node>
		<node id="1240230881" x="4478496.475215105" y="5303269.829337894" >
		</node>
		<node id="1240230889" x="4478626.538106429" y="5303275.750343628" >
		</node>
		<node id="1240230898" x="4478463.428790674" y="5303233.9382908" >
		</node>
		<node id="1246580283" x="4482673.811024067" y="5295934.368328784" >
		</node>
		<node id="1269090383" x="4482649.3524397" y="5307750.255739934" >
		</node>
		<node id="1269090384" x="4482868.488937422" y="5305574.792431076" >
		</node>
		<node id="1269090385" x="4482730.060361751" y="5305919.9829179915" >
		</node>
		<node id="1269090387" x="4482521.650215704" y="5308147.134968086" >
		</node>
		<node id="12778223" x="4479787.2719105715" y="5306143.420969723" >
		</node>
		<node id="12778528" x="4481455.394448274" y="5312424.0619549" >
		</node>
		<node id="129966292" x="4469320.898493983" y="5306077.725952786" >
		</node>
		<node id="129966318" x="4467987.5670159925" y="5306239.409006258" >
		</node>
		<node id="129966323" x="4467696.636701699" y="5306253.852053793" >
		</node>
		<node id="129966350" x="4466604.777388165" y="5305824.888274552" >
		</node>
		<node id="129966354" x="4465927.731399082" y="5305685.677363038" >
		</node>
		<node id="129966357" x="4466041.208408622" y="5305799.980914129" >
		</node>
		<node id="129966386" x="4464831.538953117" y="5308744.277548905" >
		</node>
		<node id="129966397" x="4464200.0631939825" y="5308834.630110455" >
		</node>
		<node id="1314489842" x="4478596.815581915" y="5297798.1763234865" >
		</node>
		<node id="1314489845" x="4478606.317344255" y="5297409.458563223" >
		</node>
		<node id="1327693735" x="4487549.162232506" y="5302936.258662963" >
		</node>
		<node id="1338695040" x="4473120.463417054" y="5307273.388502843" >
		</node>
		<node id="1338741570" x="4473135.233181834" y="5307238.81697743" >
		</node>
		<node id="1339953143" x="4470036.686202088" y="5301361.613339642" >
		</node>
		<node id="13446839" x="4479773.002594383" y="5306100.484958019" >
		</node>
		<node id="1360686725" x="4467135.494724183" y="5310720.503540544" >
		</node>
		<node id="1377161771" x="4473990.8412220115" y="5297188.709318403" >
		</node>
		<node id="1377161802" x="4473996.627817189" y="5297049.863394854" >
		</node>
		<node id="1377161808" x="4474008.832439715" y="5297370.456358059" >
		</node>
		<node id="1424478923" x="4473991.628475865" y="5297160.597108759" >
		</node>
		<node id="1424478937" x="4474013.8437376665" y="5297187.393895315" >
		</node>
		<node id="1424478939" x="4473991.32361121" y="5297201.038046947" >
		</node>
		<node id="14388249" x="4478390.544559339" y="5304177.167680161" >
		</node>
		<node id="14388255" x="4478416.75579475" y="5304308.818467469" >
		</node>
		<node id="14388257" x="4477956.06826534" y="5304456.409566204" >
		</node>
		<node id="14388287" x="4485293.389585507" y="5302100.888783139" >
		</node>
		<node id="14388301" x="4486455.2894181" y="5299984.501846634" >
		</node>
		<node id="14388302" x="4486560.578544328" y="5299778.657088254" >
		</node>
		<node id="1448335522" x="4480040.368120795" y="5307216.24639591" >
		</node>
		<node id="1448335525" x="4479959.640827187" y="5307428.41099881" >
		</node>
		<node id="145578194" x="4464923.777292458" y="5303136.841558512" >
		</node>
		<node id="145587863" x="4467465.798310802" y="5304106.310726556" >
		</node>
		<node id="145587902" x="4467185.385352293" y="5304860.067010081" >
		</node>
		<node id="145587967" x="4465885.476875243" y="5305426.660079437" >
		</node>
		<node id="145587971" x="4470172.001489774" y="5305325.563942365" >
		</node>
		<node id="145587972" x="4470132.678674949" y="5305342.0570125785" >
		</node>
		<node id="145587978" x="4470189.283839093" y="5305381.559532604" >
		</node>
		<node id="145588101" x="4470807.874760621" y="5306982.954362306" >
		</node>
		<node id="145588113" x="4470887.113526569" y="5307226.474599269" >
		</node>
		<node id="145588116" x="4470892.077450865" y="5307288.51669605" >
		</node>
		<node id="145588130" x="4470808.941417402" y="5307326.39766978" >
		</node>
		<node id="145588167" x="4470928.928895443" y="5307091.13235243" >
		</node>
		<node id="1468397389" x="4466114.618248358" y="5298334.943587668" >
		</node>
		<node id="14858579" x="4477437.646686448" y="5305464.8866920415" >
		</node>
		<node id="14858586" x="4477156.599719568" y="5305605.782264886" >
		</node>
		<node id="14858599" x="4475799.198330636" y="5307866.637329021" >
		</node>
		<node id="14858613" x="4475125.195691755" y="5306548.8604694335" >
		</node>
		<node id="14862018" x="4483258.141605007" y="5303761.202604716" >
		</node>
		<node id="14862021" x="4483117.698849035" y="5303911.795807562" >
		</node>
		<node id="14862042" x="4482812.282287277" y="5305591.049045836" >
		</node>
		<node id="14862043" x="4469807.187789331" y="5301249.13849068" >
		</node>
		<node id="14862047" x="4469339.394275517" y="5300804.749734165" >
		</node>
		<node id="14862049" x="4469208.406173934" y="5300758.735367465" >
		</node>
		<node id="14862050" x="4469182.637282102" y="5300717.142904828" >
		</node>
		<node id="14862052" x="4469186.002248087" y="5300635.132864549" >
		</node>
		<node id="14862055" x="4469073.530983866" y="5300560.324412983" >
		</node>
		<node id="14862062" x="4468963.181369969" y="5300295.804140789" >
		</node>
		<node id="14862070" x="4469048.985107325" y="5299805.671010997" >
		</node>
		<node id="1487707739" x="4470559.15599137" y="5307441.017143474" >
		</node>
		<node id="1493391033" x="4468877.850987466" y="5297830.979498275" >
		</node>
		<node id="1493409461" x="4466364.8709987" y="5294657.042719598" >
		</node>
		<node id="151269273" x="4464970.254040666" y="5299766.503841297" >
		</node>
		<node id="151269313" x="4465364.663281371" y="5299778.13640546" >
		</node>
		<node id="151269410" x="4467832.618791196" y="5300854.29729448" >
		</node>
		<node id="151269450" x="4469520.72899834" y="5308172.265714608" >
		</node>
		<node id="1547820383" x="4476131.3671821905" y="5295664.346544566" >
		</node>
		<node id="154803" x="4479730.01562056" y="5306184.69578201" >
		</node>
		<node id="154804" x="4479604.397590668" y="5306323.359640155" >
		</node>
		<node id="154805" x="4480532.573577737" y="5305601.893951076" >
		</node>
		<node id="154825" x="4484005.488723132" y="5303494.81608365" >
		</node>
		<node id="154826" x="4484014.056729947" y="5303508.935569808" >
		</node>
		<node id="154829" x="4484289.793762409" y="5303323.136132039" >
		</node>
		<node id="154830" x="4484612.602058295" y="5303134.533311551" >
		</node>
		<node id="154834" x="4484867.461254731" y="5303056.12603476" >
		</node>
		<node id="154836" x="4484296.955905163" y="5303334.9248932935" >
		</node>
		<node id="1549151206" x="4486623.3885703115" y="5308028.202969359" >
		</node>
		<node id="1549151213" x="4486648.717991214" y="5308177.282921178" >
		</node>
		<node id="1575915667" x="4487835.549285365" y="5301605.0407989845" >
		</node>
		<node id="1575915670" x="4487807.844481476" y="5301608.75748284" >
		</node>
		<node id="1575915927" x="4487740.433488001" y="5302056.845993858" >
		</node>
		<node id="1575915964" x="4487795.102910111" y="5300504.661056772" >
		</node>
		<node id="1590411094" x="4473280.798345298" y="5296943.684053532" >
		</node>
		<node id="1590411123" x="4473242.0605587335" y="5296981.067211233" >
		</node>
		<node id="1590411285" x="4472603.492861753" y="5298013.006983187" >
		</node>
		<node id="1590411288" x="4472596.234431221" y="5298017.344438541" >
		</node>
		<node id="1637478375" x="4475172.160313328" y="5306536.2156830635" >
		</node>
		<node id="1637577292" x="4483577.583539241" y="5297965.302617681" >
		</node>
		<node id="1637577901" x="4487520.486227065" y="5300716.785197422" >
		</node>
		<node id="1646888004" x="4465016.671045116" y="5309165.328434733" >
		</node>
		<node id="1654864254" x="4475493.505096378" y="5296943.908935767" >
		</node>
		<node id="1655948347" x="4473725.257846917" y="5296498.713093148" >
		</node>
		<node id="1655948380" x="4473684.85456245" y="5296571.370026117" >
		</node>
		<node id="1655948388" x="4473745.27161175" y="5296574.330950845" >
		</node>
		<node id="1655948427" x="4473606.603538282" y="5296585.047206195" >
		</node>
		<node id="1655948476" x="4473867.328634852" y="5296593.992154379" >
		</node>
		<node id="1655948592" x="4473584.269861619" y="5296738.167952864" >
		</node>
		<node id="1655948605" x="4473663.856141973" y="5296784.5821982" >
		</node>
		<node id="1655948615" x="4473393.1049711015" y="5296808.782567123" >
		</node>
		<node id="1655948639" x="4473283.7158237435" y="5296827.822323295" >
		</node>
		<node id="1655948644" x="4473534.553995581" y="5296842.301782276" >
		</node>
		<node id="1655948647" x="4473651.102031598" y="5296850.709020407" >
		</node>
		<node id="1655948676" x="4473679.2562456895" y="5296901.416533462" >
		</node>
		<node id="1655948679" x="4473488.793571924" y="5296929.861829487" >
		</node>
		<node id="1655948700" x="4473656.058863461" y="5296998.268063945" >
		</node>
		<node id="1656157325" x="4473354.73042004" y="5296712.435810506" >
		</node>
		<node id="1661055538" x="4473526.257082483" y="5296765.908207555" >
		</node>
		<node id="1661122776" x="4473611.583791252" y="5296583.200967893" >
		</node>